! generator: yaml2ck
! cantera-version: 3.0.0
! date: Mon, 10 Jun 2024 23:35:59 +0200
! input-files: ['SiO_detailed.yaml']
!

ELEM
O TI H N C
END

SPECIES
TIO  TIO2   O2  N2 CO O  H2O  OH  H  CO2
END

THERMO ALL
200.000   1000.000  5000.000

TIO               J 9/67O   1TI  1          G300.000   5000.000  1000.000      1
 3.74788350E+00 8.19919430E-04-3.25253960E-07 5.73249620E-11-3.51089440E-15    2
-1.33174300E+04 3.66100339E+00 3.25282760E+00 4.18231260E-04 3.78062020E-06    3
-5.10244830E-09 1.94713170E-12-1.30903400E+04 6.66174329E+00                   4
TIO2              J 9/67O   2TI  1          G300.000   5000.000  1000.000      1
 5.86203950E+00 1.77197840E-03-7.51941940E-07 1.41805840E-10-9.88564170E-15    2
-3.87678160E+04-6.84718711E+00 3.26280580E+00 8.50165840E-03-5.73881440E-06    3
 1.28965730E-11 9.75449760E-13-3.80359710E+04 6.66807529E+00                   4
H                 L7/88 H   1               G200.000   3500.000  1000.000      1
 2.50000001E+00-2.30842973E-11 1.61561948E-14-4.73515235E-18 4.98197357E-22    2
 2.54736599E+04-4.46682914E-01 2.50000000E+00 7.05332819E-13-1.99591964E-15    3
 2.30081632E-18-9.27732332E-22 2.54736599E+04-4.46682853E-01                   4
O2                TPIS89O   2               G200.000   3500.000  1000.000      1
 3.28253784E+00 1.48308754E-03-7.57966669E-07 2.09470555E-10-2.16717794E-14    2
-1.08845772E+03 5.45323129E+00 3.78245636E+00-2.99673416E-03 9.84730201E-06    3
-9.68129509E-09 3.24372837E-12-1.06394356E+03 3.65767573E+00                   4
CO                TPIS79C   1O   1          G200.000   3500.000  1000.000      1
 2.71518561E+00 2.06252743E-03-9.98825771E-07 2.30053008E-10-2.03647716E-14    2
-1.41518724E+04 7.81868772E+00 3.57953347E+00-6.10353680E-04 1.01681433E-06    3
 9.07005884E-10-9.04424499E-13-1.43440860E+04 3.50840928E+00                   4
CO2               L7/88 C   1O   2          G200.000   3500.000  1000.000      1
 3.85746029E+00 4.41437026E-03-2.21481404E-06 5.23490188E-10-4.72084164E-14    2
-4.87591660E+04 2.27163806E+00 2.35677352E+00 8.98459677E-03-7.12356269E-06    3
 2.45919022E-09-1.43699548E-13-4.83719697E+04 9.90105222E+00                   4
!L1/90
 GRI-Mech Version 3.0 Thermodynamics released 7/30/99
 NASA Polynomial format for CHEMKIN-II
 see README file for disclaimer
O                       O   1               G200.000   3500.000  1000.000      1
 2.56942078E+00-8.59741137E-05 4.19484589E-08-1.00177799E-11 1.22833691E-15    2
 2.92175791E+04 4.78433864E+00 3.16826710E+00-3.27931884E-03 6.64306396E-06    3
-6.12806624E-09 2.11265971E-12 2.91222592E+04 2.05193346E+00                   4
H2O               L8/89 H   2O   1          G200.000   3500.000  1000.000      1
 3.03399249E+00 2.17691804E-03-1.64072518E-07-9.70419870E-11 1.68200992E-14    2
-3.00042971E+04 4.96677010E+00 4.19864056E+00-2.03643410E-03 6.52040211E-06    3
-5.48797062E-09 1.77197817E-12-3.02937267E+04-8.49032208E-01                   4
OH                RUS78 H   1O   1          G200.000   3500.000  1000.000      1
 3.09288767E+00 5.48429716E-04 1.26505228E-07-8.79461556E-11 1.17412376E-14    2
 3.85865700E+03 4.47669610E+00 3.99201543E+00-2.40131752E-03 4.61793841E-06    3
-3.88113333E-09 1.36411470E-12 3.61508056E+03-1.03925458E-01                   4
N2                121286N   2               G300.000   5000.000  1000.000      1
 2.92664000E+00 1.48797680E-03-5.68476000E-07 1.00970380E-10-6.75335100E-15    2
-9.22797700E+02 5.98052800E+00 3.29867700E+00 1.40824040E-03-3.96322200E-06    3
 5.64151500E-09-2.44485400E-12-1.02089990E+03 3.95037200E+00                   4
END

REACTIONS CAL/MOLE MOLE
CO+O2<=>CO2+O    2.5e12 0.0 47800.0
OH+OH<=>H2O+O    3.57e4 2.4 -2110.0
CO+OH<=>CO2+H    4.76e7 1.23 70.0
H+O2<=>O+OH      2.65e+16 -0.67 17041.0
H+O+M<=>OH+M     5.0e+17 -1.0 0.0
 /
O+O+M<=>O2+M     1.2e+17 -1.0 0.0
 /
CO+O<=>CO2       1.8e10   0.0 2385.0
H+OH+M<=>H2O+M   2.2e+22 -2.0 0.0
 /
O2+TIO<=>O+TIO2  2.31e13  0.0 26016.0
OH+TIO<=>H+TIO2  1.8e10   0.78 1218.0
END



TRANSPORT
TIO                1   244.000     3.763     0.000     2.650     2.100
TIO2               1   244.000     3.763     0.000     2.650     2.100
H                  0   145.000     2.050     0.000     0.000     0.000
O2                 1   107.400     3.458     0.000     1.600     3.800
CO                 1    98.100     3.650     0.000     1.950     1.800
CO2                1   244.000     3.763     0.000     2.650     2.100
O                  0    80.000     2.750     0.000     0.000     0.000
H2O                2   572.400     2.605     1.844     0.000     4.000
OH                 1    80.000     2.750     0.000     0.000     0.000
N2                 1    97.530     3.621     0.000     1.760     4.000
END
