! TMY Reduced 6-step mechanism of Li et al H2/O2 mech. made compatible with:
! GRI-Mech Version 3.0 7/30/99  CHEMKIN-II format

ELEMENTS
H O N
END

SPECIES
H2 O2 H2O H O OH HO2 N2
END
THERMO ALL
   300.000  1000.000  5000.000
H                 120186H   1               G  0300.00   5000.00  1000.00      1
 2.50000000E+00 0.00000000E+00 0.00000000E+00 0.00000000E+00 0.00000000E+00    2
 2.54716270E+04-4.60117638E-01 2.50000000E+00 0.00000000E+00 0.00000000E+00    3
 0.00000000E+00 0.00000000E+00 2.54716270E+04-4.60117608E-01                   4
O                 120186O   1               G  0300.00   5000.00  1000.00      1
 2.54205966E+00-2.75506191E-05-3.10280335E-09 4.55106742E-12-4.36805150E-16    2
 2.92308027E+04 4.92030811E+00 2.94642878E+00-1.63816649E-03 2.42103170E-06    3
-1.60284319E-09 3.89069636E-13 2.91476445E+04 2.96399498E+00                   4
OH                S 9/01O   1H   1    0    0G   200.000  6000.000 1000.        1
 2.86472886E+00 1.05650448E-03-2.59082758E-07 3.05218674E-11-1.33195876E-15    2
 3.68362875E+03 5.70164073E+00 4.12530561E+00-3.22544939E-03 6.52764691E-06    3
-5.79853643E-09 2.06237379E-12 3.34630913E+03-6.90432960E-01 4.51532273E+03    4
H2                121286H   2               G  0300.00   5000.00  1000.00      1
 2.99142337E+00 7.00064411E-04-5.63382869E-08-9.23157818E-12 1.58275179E-15    2
-8.35033997E+02-1.35511017E+00 3.29812431E+00 8.24944174E-04-8.14301529E-07    3
-9.47543433E-11 4.13487224E-13-1.01252087E+03-3.29409409E+00                   4
O2                121386O   2               G  0300.00   5000.00  1000.00      1
 3.69757819E+00 6.13519689E-04-1.25884199E-07 1.77528148E-11-1.13643531E-15    2
-1.23393018E+03 3.18916559E+00 3.21293640E+00 1.12748635E-03-5.75615047E-07    3
 1.31387723E-09-8.76855392E-13-1.00524902E+03 6.03473759E+00                   4
H2O                20387H   2O   1          G  0300.00   5000.00  1000.00      1
 2.67214561E+00 3.05629289E-03-8.73026011E-07 1.20099639E-10-6.39161787E-15    2
-2.98992090E+04 6.86281681E+00 3.38684249E+00 3.47498246E-03-6.35469633E-06    3
 6.96858127E-09-2.50658847E-12-3.02081133E+04 2.59023285E+00                   4
HO2               L 5/89H   1O   2   00   00G   200.000  3500.000  1000.000    1
 4.01721090E+00 2.23982013E-03-6.33658150E-07 1.14246370E-10-1.07908535E-14    2
 1.11856713E+02 3.78510215E+00 4.30179801E+00-4.74912051E-03 2.11582891E-05    3
-2.42763894E-08 9.29225124E-12 2.94808040E+02 3.71666245E+00 1.00021620E+04    4
N2                121286N   2               G  0300.00   5000.00  1000.00      1
 0.02926640E+02 0.01487977E-01-0.05684761E-05 0.01009704E-08-0.06753351E-13    2
-0.09227977E+04 0.05980528E+02 0.03298677E+02 0.01408240E-01-0.03963222E-04    3
 0.05641515E-07-0.02444855E-10-0.01020900E+05 0.03950372E+02                   4

!
! Reduced by Strohle to R1, R2, R3, R9, R10, R11
!
REACTIONS
H+O2=O+OH                       3.547e+15 -0.406 1.6599E+4
O+H2=H+OH                       0.508E+05  2.67  0.629E+04
H2+OH=H2O+H                     0.216E+09  1.51  0.343E+04
H+O2(+M)=HO2(+M)                1.475E+12  0.60  0.00E+00
    LOW/6.366E+20 -1.72 5.248E+02/
    TROE/0.8 1E-30 1E+30/
    H2/2.0/ H2O/11./ O2/0.78/
HO2+H=H2+O2                     1.66E+13   0.00   0.823E+03
HO2+H=OH+OH                     7.079E+13  0.00   2.95E+02
END
